reac_test.pdb
 OpenBabel07141716423D

 15 14  0  0  1  0  0  0  0  0999 V2000
    1.3550    0.2430    0.0540 C   0  0  0  0  0  0  0  0  0  0  0  0
    2.2720    0.2750   -0.8170 O   0  0  0  0  0  0  0  0  0  0  0  0
    1.3490    0.8690    1.1610 O   0  0  0  0  0  0  0  0  0  0  0  0
    0.0800   -0.7060   -0.2250 C   0  0  1  0  0  0  0  0  0  0  0  0
   -0.2330   -0.6760   -1.7870 C   0  0  0  0  0  0  0  0  0  0  0  0
    0.2500   -1.9610    0.1940 O   0  0  0  0  0  0  0  0  0  0  0  0
   -1.1490    0.0420    0.3970 C   0  0  0  0  0  0  0  0  0  0  0  0
   -2.0050   -0.4810    1.1060 O   0  0  0  0  0  0  0  0  0  0  0  0
   -1.3560    1.5310    0.0380 C   0  0  0  0  0  0  0  0  0  0  0  0
   -0.5420    1.9470   -0.5590 H   0  0  0  0  0  0  0  0  0  0  0  0
   -1.4280    2.1000    0.9730 H   0  0  0  0  0  0  0  0  0  0  0  0
   -2.3090    1.6320   -0.5050 H   0  0  0  0  0  0  0  0  0  0  0  0
   -1.0860   -1.3450   -1.9770 H   0  0  0  0  0  0  0  0  0  0  0  0
    0.6640   -1.0740   -2.2710 H   0  0  0  0  0  0  0  0  0  0  0  0
   -0.4400    0.3210   -2.2150 H   0  0  0  0  0  0  0  0  0  0  0  0
  1  3  1  0  0  0  0
  2  1  2  0  0  0  0
  4  5  1  6  0  0  0
  4  1  1  0  0  0  0
  4  6  1  0  0  0  0
  4  7  1  0  0  0  0
  7  8  2  0  0  0  0
  9  7  1  0  0  0  0
  9 11  1  0  0  0  0
 10  9  1  0  0  0  0
 12  9  1  0  0  0  0
 13  5  1  0  0  0  0
 14  5  1  0  0  0  0
 15  5  1  0  0  0  0
M  END
