prod_test.pdb
 OpenBabel07161718563D

 15 14  0  0  0  0  0  0  0  0999 V2000
   -1.5770    0.1020   -0.0380 C   0  0  0  0  0  0  0  0  0  0  0  0
   -1.8960    0.4860   -1.2020 O   0  0  0  0  0  0  0  0  0  0  0  0
   -2.2140    0.2700    1.0380 O   0  0  0  0  0  0  0  0  0  0  0  0
   -0.2420   -0.6890    0.0670 C   0  0  0  0  0  0  0  0  0  0  0  0
    0.9100    1.5000    0.7310 C   0  0  0  0  0  0  0  0  0  0  0  0
   -0.2920   -1.9170    0.0490 O   0  0  0  0  0  0  0  0  0  0  0  0
    1.1600    0.0720    0.1360 C   0  0  0  0  0  0  0  0  0  0  0  0
    2.1180   -0.5890    0.8010 O   0  0  0  0  0  0  0  0  0  0  0  0
    1.5340    0.2720   -1.3880 C   0  0  0  0  0  0  0  0  0  0  0  0
    2.4790    0.8380   -1.4200 H   0  0  0  0  0  0  0  0  0  0  0  0
    0.7610    0.7960   -1.9690 H   0  0  0  0  0  0  0  0  0  0  0  0
    1.7100   -0.7170   -1.8310 H   0  0  0  0  0  0  0  0  0  0  0  0
    0.6230    1.4080    1.7850 H   0  0  0  0  0  0  0  0  0  0  0  0
    0.1320    2.0760    0.2070 H   0  0  0  0  0  0  0  0  0  0  0  0
    1.8640    2.0480    0.6800 H   0  0  0  0  0  0  0  0  0  0  0  0
  1  4  1  0  0  0  0
  1  3  1  0  0  0  0
  2  1  2  0  0  0  0
  4  7  1  0  0  0  0
  5 13  1  0  0  0  0
  6  4  2  0  0  0  0
  7  5  1  0  0  0  0
  7  8  1  0  0  0  0
  9  7  1  0  0  0  0
 10  9  1  0  0  0  0
 11  9  1  0  0  0  0
 12  9  1  0  0  0  0
 14  5  1  0  0  0  0
 15  5  1  0  0  0  0
M  END
